Circuit: * C:\Users\phild\Documents\PlatformIO\Projects\Scoreboard-esp01-neopixel\bss138simulation.asc

WARNING: Less than two connections to node 3.3V.  This node is used by V2.
Instance "m:u3:1": Width narrower than recommended for a level 3 MOSFET.
Instance "m:u1:1": Width narrower than recommended for a level 3 MOSFET.
Direct Newton iteration for .op point succeeded.

Date: Sat Dec 18 10:53:45 2021
Total elapsed time: 0.537 seconds.

tnom = 27
temp = 27
method = modified trap
totiter = 54956
traniter = 54924
tranpoints = 24701
accept = 17700
rejected = 7001
matrix size = 32
fillins = 8
solver = Normal
Matrix Compiler1: 3.23 KB object code size  1.0/0.6/[0.3]
Matrix Compiler2: off  [0.4]/0.6/0.5

