Circuit: * C:\Users\phild\Documents\PlatformIO\Projects\Scoreboard-esp01-neopixel\simulation\simulation.asc

WARNING: Less than two connections to node 3.3VS.  This node is used by V3.
Instance "m:u1:1": Width narrower than recommended for a level 3 MOSFET.
Direct Newton iteration failed to find .op point.  (Use ".option noopiter" to skip.)
Starting Gmin stepping
Gmin = 10
Gmin = 1.07374
Gmin = 0.115292
Gmin = 0.0123794
Gmin = 0.00132923
Gmin = 0.000142725
Gmin = 1.5325e-005
Gmin = 1.6455e-006
Gmin = 1.76685e-007
Gmin = 1.89714e-008
Gmin = 2.03704e-009
Gmin = 2.18725e-010
Gmin = 2.34854e-011
Gmin = 2.52173e-012
Gmin = 2.70769e-013
Gmin = 0
Gmin stepping succeeded in finding the operating point.


Date: Sat Dec 18 11:03:03 2021
Total elapsed time: 0.200 seconds.

tnom = 27
temp = 27
method = modified trap
totiter = 10070
traniter = 9704
tranpoints = 3896
accept = 3247
rejected = 649
matrix size = 42
fillins = 10
solver = Normal
Matrix Compiler1: 3.21 KB object code size  0.8/0.5/[0.2]
Matrix Compiler2: 3.46 KB object code size  0.4/0.7/[0.4]

